<?xml version="1.0" encoding="utf-8"?>
  <!DOCTYPE population SYSTEM "http://www.matsim.org/files/dtd/population_v6.dtd">
  <population>
  <!-- ====================================================================== -->

 <person id= "0" >
    <attributes>
      <attribute name="BDIAgentType" class="java.lang.String" >io.github.agentsoz.ees.agents.bushfire.Resident</attribute>
      <attribute name="HasDependentsAtLocation" class="java.lang.String" ></attribute>
      <attribute name="InitialResponseThreshold" class="java.lang.Double" >0.0</attribute>
      <attribute name="FinalResponseThreshold"   class="java.lang.Double" >0.0</attribute>
      <attribute name="WillGoHomeAfterVisitingDependents" class="java.lang.Boolean" >false</attribute>
      <attribute name="WillGoHomeBeforeLeaving" class="java.lang.Boolean" >true</attribute>
      <attribute name="EvacLocationPreference" class="java.lang.String">Lorne 21,759384.918109419,5730417.76020269</attribute>
      <attribute name="InvacLocationPreference" class="java.lang.String">Anglesea 46,778601.414982888,5744862.52348255</attribute>
    </attributes>
    <plan selected="yes">
      <activity type="home" x="778605.884568198" y="5744913.77863934" end_time="05:26:00" />
      <leg mode="car" />
      <activity type="other" x="778707.911695857" y="5745384.49367177" end_time="06:04:00" />
      <leg mode="car" />
      <activity type="home" x="778605.884568198" y="5744913.77863934" end_time="08:37:00" />
      <leg mode="car" />
      <activity type="work" x="789748.033182453" y="5752663.56664911" end_time="20:20:00" />
      <leg mode="car" />
      <activity type="home" x="778605.884568198" y="5744913.77863934" />
    </plan>
  </person>

  

 <person id= "1" >
    <attributes>
      <attribute name="BDIAgentType" class="java.lang.String" >io.github.agentsoz.ees.agents.bushfire.Resident</attribute>
      <attribute name="HasDependentsAtLocation" class="java.lang.String" ></attribute>
      <attribute name="InitialResponseThreshold" class="java.lang.Double" >0.0</attribute>
      <attribute name="FinalResponseThreshold"   class="java.lang.Double" >0.0</attribute>
      <attribute name="WillGoHomeAfterVisitingDependents" class="java.lang.Boolean" >false</attribute>
      <attribute name="WillGoHomeBeforeLeaving" class="java.lang.Boolean" >true</attribute>
      <attribute name="EvacLocationPreference" class="java.lang.String">,743345.54165134,5752749.80696866</attribute>
      <attribute name="InvacLocationPreference" class="java.lang.String">,792255.620479104,5754391.30007341</attribute>
    </attributes>
    <plan selected="yes">
      <activity type="home" x="792117.641431326" y="5754336.17826126" end_time="00:01:00" />
      <leg mode="car" />
      <activity type="work" x="789646.946083331" y="5752635.20704899" end_time="05:29:00" />
      <leg mode="car" />
      <activity type="home" x="792117.641431326" y="5754336.17826126" end_time="12:57:00" />
      <leg mode="car" />
      <activity type="work" x="789963.671569669" y="5752644.098624" end_time="17:25:00" />
      <leg mode="car" />
      <activity type="other" x="789816.421674447" y="5753213.33592403" end_time="19:43:00" />
      <leg mode="car" />
      <activity type="home" x="792117.641431326" y="5754336.17826126" />
    </plan>
  </person>

  

 <person id= "2" >
    <attributes>
      <attribute name="BDIAgentType" class="java.lang.String" >io.github.agentsoz.ees.agents.bushfire.Resident</attribute>
      <attribute name="HasDependentsAtLocation" class="java.lang.String" >776725.358560259,5742772.39527822</attribute>
      <attribute name="InitialResponseThreshold" class="java.lang.Double" >0.0</attribute>
      <attribute name="FinalResponseThreshold"   class="java.lang.Double" >0.0</attribute>
      <attribute name="WillGoHomeAfterVisitingDependents" class="java.lang.Boolean" >true</attribute>
      <attribute name="WillGoHomeBeforeLeaving" class="java.lang.Boolean" >false</attribute>
      <attribute name="EvacLocationPreference" class="java.lang.String">Geelong,793176.81224368,5768999.20766906</attribute>
      <attribute name="InvacLocationPreference" class="java.lang.String">Anglesea 11,776775.148450238,5742599.92326103</attribute>
    </attributes>
    <plan selected="yes">
      <activity type="home" x="776726.860328188" y="5742766.94462888" end_time="10:01:00" />
      <leg mode="car" />
      <activity type="work" x="779022.235035913" y="5744569.15549495" end_time="14:59:00" />
      <leg mode="car" />
      <activity type="beach" x="778614.794764519" y="5743470.87325903" end_time="17:09:00" />
      <leg mode="car" />
      <activity type="shops" x="778240.031969126" y="5743851.35184696" end_time="18:19:00" />
      <leg mode="car" />
      <activity type="home" x="776726.860328188" y="5742766.94462888" />
    </plan>
  </person>

  

 <person id= "3" >
    <attributes>
      <attribute name="BDIAgentType" class="java.lang.String" >io.github.agentsoz.ees.agents.bushfire.Resident</attribute>
      <attribute name="HasDependentsAtLocation" class="java.lang.String" ></attribute>
      <attribute name="InitialResponseThreshold" class="java.lang.Double" >0.0</attribute>
      <attribute name="FinalResponseThreshold"   class="java.lang.Double" >0.0</attribute>
      <attribute name="WillGoHomeAfterVisitingDependents" class="java.lang.Boolean" >false</attribute>
      <attribute name="WillGoHomeBeforeLeaving" class="java.lang.Boolean" >false</attribute>
      <attribute name="EvacLocationPreference" class="java.lang.String">,725946.634709856,5753152.68589706</attribute>
      <attribute name="InvacLocationPreference" class="java.lang.String">,790375.415976107,5752132.444752</attribute>
    </attributes>
    <plan selected="yes">
      <activity type="home" x="790216.494528587" y="5752516.39093411" end_time="08:38:00" />
      <leg mode="car" />
      <activity type="other" x="789861.480645674" y="5753138.57302227" end_time="10:05:00" />
      <leg mode="car" />
      <activity type="home" x="790216.494528587" y="5752516.39093411" end_time="12:04:00" />
      <leg mode="car" />
      <activity type="work" x="778882.78709929" y="5744513.27611507" end_time="16:03:00" />
      <leg mode="car" />
      <activity type="home" x="790216.494528587" y="5752516.39093411" />
    </plan>
  </person>

  

 <person id= "4" >
    <attributes>
      <attribute name="BDIAgentType" class="java.lang.String" >io.github.agentsoz.ees.agents.bushfire.Resident</attribute>
      <attribute name="HasDependentsAtLocation" class="java.lang.String" ></attribute>
      <attribute name="InitialResponseThreshold" class="java.lang.Double" >0.0</attribute>
      <attribute name="FinalResponseThreshold"   class="java.lang.Double" >0.0</attribute>
      <attribute name="WillGoHomeAfterVisitingDependents" class="java.lang.Boolean" >false</attribute>
      <attribute name="WillGoHomeBeforeLeaving" class="java.lang.Boolean" >true</attribute>
      <attribute name="EvacLocationPreference" class="java.lang.String">,725946.634709856,5753152.68589706</attribute>
      <attribute name="InvacLocationPreference" class="java.lang.String">Anglesea 37,777404.516168798,5744686.19426014</attribute>
    </attributes>
    <plan selected="yes">
      <activity type="home" x="777286.250490932" y="5744444.90481238" end_time="02:58:00" />
      <leg mode="car" />
      <activity type="other" x="778707.911695857" y="5745384.49367177" end_time="05:59:00" />
      <leg mode="car" />
      <activity type="home" x="777286.250490932" y="5744444.90481238" end_time="07:32:00" />
      <leg mode="car" />
      <activity type="shops" x="778511.924999372" y="5744476.53405488" end_time="08:56:00" />
      <leg mode="car" />
      <activity type="home" x="777286.250490932" y="5744444.90481238" end_time="11:33:00" />
      <leg mode="car" />
      <activity type="shops" x="778175.520327603" y="5744153.76169213" end_time="13:16:00" />
      <leg mode="car" />
      <activity type="home" x="777286.250490932" y="5744444.90481238" end_time="17:19:00" />
      <leg mode="car" />
      <activity type="work" x="779043.721912658" y="5744521.18104089" end_time="20:07:00" />
      <leg mode="car" />
      <activity type="home" x="777286.250490932" y="5744444.90481238" />
    </plan>
  </person>

  

 <person id= "5" >
    <attributes>
      <attribute name="BDIAgentType" class="java.lang.String" >io.github.agentsoz.ees.agents.bushfire.Resident</attribute>
      <attribute name="HasDependentsAtLocation" class="java.lang.String" ></attribute>
      <attribute name="InitialResponseThreshold" class="java.lang.Double" >0.0</attribute>
      <attribute name="FinalResponseThreshold"   class="java.lang.Double" >0.0</attribute>
      <attribute name="WillGoHomeAfterVisitingDependents" class="java.lang.Boolean" >false</attribute>
      <attribute name="WillGoHomeBeforeLeaving" class="java.lang.Boolean" >true</attribute>
      <attribute name="EvacLocationPreference" class="java.lang.String">Anglesea 49,778542.4993573,5744576.43001295</attribute>
      <attribute name="InvacLocationPreference" class="java.lang.String">Lorne 26,758866.519056659,5730418.87329219</attribute>
    </attributes>
    <plan selected="yes">
      <activity type="home" x="758764.266308824" y="5730618.19553791" end_time="12:39:00" />
      <leg mode="car" />
      <activity type="work" x="759242.842466952" y="5730260.94977307" end_time="16:38:00" />
      <leg mode="car" />
      <activity type="shops" x="759295.852722852" y="5729929.45960146" end_time="19:04:00" />
      <leg mode="car" />
      <activity type="home" x="758764.266308824" y="5730618.19553791" />
    </plan>
  </person>

  

 <person id= "6" >
    <attributes>
      <attribute name="BDIAgentType" class="java.lang.String" >io.github.agentsoz.ees.agents.bushfire.Resident</attribute>
      <attribute name="HasDependentsAtLocation" class="java.lang.String" ></attribute>
      <attribute name="InitialResponseThreshold" class="java.lang.Double" >0.0</attribute>
      <attribute name="FinalResponseThreshold"   class="java.lang.Double" >0.0</attribute>
      <attribute name="WillGoHomeAfterVisitingDependents" class="java.lang.Boolean" >false</attribute>
      <attribute name="WillGoHomeBeforeLeaving" class="java.lang.Boolean" >false</attribute>
      <attribute name="EvacLocationPreference" class="java.lang.String">,790611.39832572,5753345.98713549</attribute>
      <attribute name="InvacLocationPreference" class="java.lang.String">NSP Surf Club,759414.662987548,5729942.34603638</attribute>
    </attributes>
    <plan selected="yes">
      <activity type="home" x="759034.292024185" y="5729489.37523422" end_time="08:26:00" />
      <leg mode="car" />
      <activity type="shops" x="771123.261766525" y="5738707.26307964" end_time="11:00:00" />
      <leg mode="car" />
      <activity type="work" x="779113.698750754" y="5744557.74372088" end_time="15:21:00" />
      <leg mode="car" />
      <activity type="shops" x="778190.084385339" y="5744106.22590521" end_time="19:14:00" />
      <leg mode="car" />
      <activity type="home" x="759034.292024185" y="5729489.37523422" end_time="20:16:00" />
      <leg mode="car" />
      <activity type="other" x="759157.839965405" y="5730302.57810009" end_time="23:04:00" />
      <leg mode="car" />
      <activity type="home" x="759034.292024185" y="5729489.37523422" />
    </plan>
  </person>

  

 <person id= "7" >
    <attributes>
      <attribute name="BDIAgentType" class="java.lang.String" >io.github.agentsoz.ees.agents.bushfire.Resident</attribute>
      <attribute name="HasDependentsAtLocation" class="java.lang.String" >791031.007997629,5753197.25878883</attribute>
      <attribute name="InitialResponseThreshold" class="java.lang.Double" >0.3</attribute>
      <attribute name="FinalResponseThreshold"   class="java.lang.Double" >0.3</attribute>
      <attribute name="WillGoHomeAfterVisitingDependents" class="java.lang.Boolean" >true</attribute>
      <attribute name="WillGoHomeBeforeLeaving" class="java.lang.Boolean" >false</attribute>
      <attribute name="EvacLocationPreference" class="java.lang.String">,725946.634709856,5753152.68589706</attribute>
      <attribute name="InvacLocationPreference" class="java.lang.String">,790611.39832572,5753345.98713549</attribute>
    </attributes>
    <plan selected="yes">
      <activity type="home" x="791043.234184" y="5753196.51615606" end_time="06:45:00" />
      <leg mode="car" />
      <activity type="shops" x="790764.27655164" y="5752213.88092372" end_time="09:04:00" />
      <leg mode="car" />
      <activity type="work" x="789795.894655112" y="5752605.26816154" end_time="12:32:00" />
      <leg mode="car" />
      <activity type="home" x="791043.234184" y="5753196.51615606" end_time="16:10:00" />
      <leg mode="car" />
      <activity type="other" x="789848.578586559" y="5753094.78647086" end_time="18:54:00" />
      <leg mode="car" />
      <activity type="home" x="791043.234184" y="5753196.51615606" />
    </plan>
  </person>

  

 <person id= "8" >
    <attributes>
      <attribute name="BDIAgentType" class="java.lang.String" >io.github.agentsoz.ees.agents.bushfire.Resident</attribute>
      <attribute name="HasDependentsAtLocation" class="java.lang.String" ></attribute>
      <attribute name="InitialResponseThreshold" class="java.lang.Double" >0.0</attribute>
      <attribute name="FinalResponseThreshold"   class="java.lang.Double" >0.0</attribute>
      <attribute name="WillGoHomeAfterVisitingDependents" class="java.lang.Boolean" >false</attribute>
      <attribute name="WillGoHomeBeforeLeaving" class="java.lang.Boolean" >false</attribute>
      <attribute name="EvacLocationPreference" class="java.lang.String">,725946.634709856,5753152.68589706</attribute>
      <attribute name="InvacLocationPreference" class="java.lang.String">,792241.980747176,5754059.19193522</attribute>
    </attributes>
    <plan selected="yes">
      <activity type="home" x="793306.251232215" y="5754627.88749068" end_time="09:10:00" />
      <leg mode="car" />
      <activity type="work" x="789998.973612973" y="5754658.31925142" end_time="13:04:00" />
      <leg mode="car" />
      <activity type="shops" x="778641.415648874" y="5744464.24122347" end_time="15:57:00" />
      <leg mode="car" />
      <activity type="beach" x="790813.932219314" y="5752646.56536696" end_time="16:09:00" />
      <leg mode="car" />
      <activity type="work" x="790097.91749317" y="5754855.97938242" end_time="23:59:00" />
      <leg mode="car" />
      <activity type="home" x="793306.251232215" y="5754627.88749068" />
    </plan>
  </person>

  

 <person id= "9" >
    <attributes>
      <attribute name="BDIAgentType" class="java.lang.String" >io.github.agentsoz.ees.agents.bushfire.Resident</attribute>
      <attribute name="HasDependentsAtLocation" class="java.lang.String" ></attribute>
      <attribute name="InitialResponseThreshold" class="java.lang.Double" >0.0</attribute>
      <attribute name="FinalResponseThreshold"   class="java.lang.Double" >0.0</attribute>
      <attribute name="WillGoHomeAfterVisitingDependents" class="java.lang.Boolean" >false</attribute>
      <attribute name="WillGoHomeBeforeLeaving" class="java.lang.Boolean" >false</attribute>
      <attribute name="EvacLocationPreference" class="java.lang.String">,725946.634709856,5753152.68589706</attribute>
      <attribute name="InvacLocationPreference" class="java.lang.String">,791277.478874657,5753976.97934263</attribute>
    </attributes>
    <plan selected="yes">
      <activity type="home" x="792249.075120762" y="5754453.6150836" end_time="08:58:00" />
      <leg mode="car" />
      <activity type="work" x="789949.244287002" y="5754768.05688998" end_time="20:35:00" />
      <leg mode="car" />
      <activity type="home" x="792249.075120762" y="5754453.6150836" />
    </plan>
  </person>

  

 <person id= "10" >
    <attributes>
      <attribute name="BDIAgentType" class="java.lang.String" >io.github.agentsoz.ees.agents.bushfire.Resident</attribute>
      <attribute name="HasDependentsAtLocation" class="java.lang.String" ></attribute>
      <attribute name="InitialResponseThreshold" class="java.lang.Double" >0.0</attribute>
      <attribute name="FinalResponseThreshold"   class="java.lang.Double" >0.0</attribute>
      <attribute name="WillGoHomeAfterVisitingDependents" class="java.lang.Boolean" >false</attribute>
      <attribute name="WillGoHomeBeforeLeaving" class="java.lang.Boolean" >true</attribute>
      <attribute name="EvacLocationPreference" class="java.lang.String">,768145.215009431,5778372.30932458</attribute>
      <attribute name="InvacLocationPreference" class="java.lang.String">Aireys Inlet 5,770483.896688435,5738228.93432269</attribute>
    </attributes>
    <plan selected="yes">
      <activity type="home" x="770693.623557372" y="5738236.18364618" end_time="00:01:00" />
      <leg mode="car" />
      <activity type="work" x="770440.66549888" y="5738068.22089847" end_time="04:29:00" />
      <leg mode="car" />
      <activity type="home" x="770693.623557372" y="5738236.18364618" end_time="09:38:00" />
      <leg mode="car" />
      <activity type="work" x="779119.277432266" y="5744489.66345116" end_time="16:57:00" />
      <leg mode="car" />
      <activity type="shops" x="778518.482833781" y="5744475.12126124" end_time="18:58:00" />
      <leg mode="car" />
      <activity type="home" x="770693.623557372" y="5738236.18364618" />
    </plan>
  </person>

  

 <person id= "11" >
    <attributes>
      <attribute name="BDIAgentType" class="java.lang.String" >io.github.agentsoz.ees.agents.bushfire.Resident</attribute>
      <attribute name="HasDependentsAtLocation" class="java.lang.String" ></attribute>
      <attribute name="InitialResponseThreshold" class="java.lang.Double" >0.0</attribute>
      <attribute name="FinalResponseThreshold"   class="java.lang.Double" >0.0</attribute>
      <attribute name="WillGoHomeAfterVisitingDependents" class="java.lang.Boolean" >false</attribute>
      <attribute name="WillGoHomeBeforeLeaving" class="java.lang.Boolean" >true</attribute>
      <attribute name="EvacLocationPreference" class="java.lang.String">Geelong,793176.81224368,5768999.20766906</attribute>
      <attribute name="InvacLocationPreference" class="java.lang.String">Anglesea 36,777183.2489159,5744650.57280355</attribute>
    </attributes>
    <plan selected="yes">
      <activity type="home" x="777202.769803007" y="5744687.55931509" end_time="07:00:00" />
      <leg mode="car" />
      <activity type="shops" x="771136.11027124" y="5738738.72647331" end_time="09:40:00" />
      <leg mode="car" />
      <activity type="home" x="777202.769803007" y="5744687.55931509" end_time="13:24:00" />
      <leg mode="car" />
      <activity type="work" x="779113.698750754" y="5744557.74372088" end_time="20:57:00" />
      <leg mode="car" />
      <activity type="home" x="777202.769803007" y="5744687.55931509" />
    </plan>
  </person>

  

 <person id= "12" >
    <attributes>
      <attribute name="BDIAgentType" class="java.lang.String" >io.github.agentsoz.ees.agents.bushfire.Resident</attribute>
      <attribute name="HasDependentsAtLocation" class="java.lang.String" >790172.052483906,5752624.40907914</attribute>
      <attribute name="InitialResponseThreshold" class="java.lang.Double" >0.0</attribute>
      <attribute name="FinalResponseThreshold"   class="java.lang.Double" >0.0</attribute>
      <attribute name="WillGoHomeAfterVisitingDependents" class="java.lang.Boolean" >false</attribute>
      <attribute name="WillGoHomeBeforeLeaving" class="java.lang.Boolean" >false</attribute>
      <attribute name="EvacLocationPreference" class="java.lang.String">,743345.54165134,5752749.80696866</attribute>
      <attribute name="InvacLocationPreference" class="java.lang.String">,790375.415976107,5752132.444752</attribute>
    </attributes>
    <plan selected="yes">
      <activity type="home" x="790191.045044533" y="5752608.68343256" end_time="09:23:00" />
      <leg mode="car" />
      <activity type="work" x="789942.961687305" y="5754630.51561038" end_time="17:32:00" />
      <leg mode="car" />
      <activity type="beach" x="790568.951774962" y="5751325.2355685" end_time="18:01:00" />
      <leg mode="car" />
      <activity type="home" x="790191.045044533" y="5752608.68343256" end_time="23:08:00" />
      <leg mode="car" />
      <activity type="other" x="789816.421674447" y="5753213.33592403" end_time="23:59:00" />
      <leg mode="car" />
      <activity type="home" x="790191.045044533" y="5752608.68343256" />
    </plan>
  </person>

  

 <person id= "13" >
    <attributes>
      <attribute name="BDIAgentType" class="java.lang.String" >io.github.agentsoz.ees.agents.bushfire.Resident</attribute>
      <attribute name="HasDependentsAtLocation" class="java.lang.String" >777354.065892359,5743764.72155914</attribute>
      <attribute name="InitialResponseThreshold" class="java.lang.Double" >0.3</attribute>
      <attribute name="FinalResponseThreshold"   class="java.lang.Double" >0.3</attribute>
      <attribute name="WillGoHomeAfterVisitingDependents" class="java.lang.Boolean" >true</attribute>
      <attribute name="WillGoHomeBeforeLeaving" class="java.lang.Boolean" >false</attribute>
      <attribute name="EvacLocationPreference" class="java.lang.String">,725946.634709856,5753152.68589706</attribute>
      <attribute name="InvacLocationPreference" class="java.lang.String">Anglesea 22,777371.744238016,5743570.15896428</attribute>
    </attributes>
    <plan selected="yes">
      <activity type="home" x="777364.608651598" y="5743748.99872564" end_time="08:53:00" />
      <leg mode="car" />
      <activity type="work" x="778967.646377804" y="5744584.27541027" end_time="12:15:00" />
      <leg mode="car" />
      <activity type="home" x="777364.608651598" y="5743748.99872564" end_time="17:20:00" />
      <leg mode="car" />
      <activity type="shops" x="778390.926394753" y="5744427.16264513" end_time="21:33:00" />
      <leg mode="car" />
      <activity type="home" x="777364.608651598" y="5743748.99872564" />
    </plan>
  </person>

  

 <person id= "14" >
    <attributes>
      <attribute name="BDIAgentType" class="java.lang.String" >io.github.agentsoz.ees.agents.bushfire.Resident</attribute>
      <attribute name="HasDependentsAtLocation" class="java.lang.String" ></attribute>
      <attribute name="InitialResponseThreshold" class="java.lang.Double" >0.0</attribute>
      <attribute name="FinalResponseThreshold"   class="java.lang.Double" >0.0</attribute>
      <attribute name="WillGoHomeAfterVisitingDependents" class="java.lang.Boolean" >false</attribute>
      <attribute name="WillGoHomeBeforeLeaving" class="java.lang.Boolean" >true</attribute>
      <attribute name="EvacLocationPreference" class="java.lang.String">Geelong,793176.81224368,5768999.20766906</attribute>
      <attribute name="InvacLocationPreference" class="java.lang.String">Lorne 12,759469.401355739,5731080.63197747</attribute>
    </attributes>
    <plan selected="yes">
      <activity type="home" x="759393.592101365" y="5730934.61862972" end_time="08:48:00" />
      <leg mode="car" />
      <activity type="work" x="759252.299771141" y="5730351.6057338" end_time="17:15:00" />
      <leg mode="car" />
      <activity type="home" x="759393.592101365" y="5730934.61862972" end_time="18:37:00" />
      <leg mode="car" />
      <activity type="other" x="759157.839965405" y="5730302.57810009" end_time="21:08:00" />
      <leg mode="car" />
      <activity type="shops" x="759292.957293393" y="5730046.69255781" end_time="22:32:00" />
      <leg mode="car" />
      <activity type="home" x="759393.592101365" y="5730934.61862972" />
    </plan>
  </person>

  

 <person id= "15" >
    <attributes>
      <attribute name="BDIAgentType" class="java.lang.String" >io.github.agentsoz.ees.agents.bushfire.Resident</attribute>
      <attribute name="HasDependentsAtLocation" class="java.lang.String" >790408.077111278,5753940.51647733</attribute>
      <attribute name="InitialResponseThreshold" class="java.lang.Double" >0.1</attribute>
      <attribute name="FinalResponseThreshold"   class="java.lang.Double" >0.1</attribute>
      <attribute name="WillGoHomeAfterVisitingDependents" class="java.lang.Boolean" >true</attribute>
      <attribute name="WillGoHomeBeforeLeaving" class="java.lang.Boolean" >false</attribute>
      <attribute name="EvacLocationPreference" class="java.lang.String">Lorne 34,759271.09371883,5729851.2967029</attribute>
      <attribute name="InvacLocationPreference" class="java.lang.String">,790515.310544487,5753801.66301497</attribute>
    </attributes>
    <plan selected="yes">
      <activity type="home" x="790425.074560178" y="5753925.97525191" end_time="13:41:00" />
      <leg mode="car" />
      <activity type="work" x="789641.452779212" y="5752808.26959037" end_time="23:59:00" />
      <leg mode="car" />
      <activity type="home" x="790425.074560178" y="5753925.97525191" />
    </plan>
  </person>

  

 <person id= "16" >
    <attributes>
      <attribute name="BDIAgentType" class="java.lang.String" >io.github.agentsoz.ees.agents.bushfire.Resident</attribute>
      <attribute name="HasDependentsAtLocation" class="java.lang.String" ></attribute>
      <attribute name="InitialResponseThreshold" class="java.lang.Double" >0.0</attribute>
      <attribute name="FinalResponseThreshold"   class="java.lang.Double" >0.0</attribute>
      <attribute name="WillGoHomeAfterVisitingDependents" class="java.lang.Boolean" >false</attribute>
      <attribute name="WillGoHomeBeforeLeaving" class="java.lang.Boolean" >false</attribute>
      <attribute name="EvacLocationPreference" class="java.lang.String">,791477.824726652,5753417.74149688</attribute>
      <attribute name="InvacLocationPreference" class="java.lang.String">,769904.442576803,5740004.74276703</attribute>
    </attributes>
    <plan selected="yes">
      <activity type="home" x="770417.66713754" y="5739607.93400892" end_time="08:09:00" />
      <leg mode="car" />
      <activity type="work" x="770440.66549888" y="5738068.22089847" end_time="12:50:00" />
      <leg mode="car" />
      <activity type="shops" x="770304.616107721" y="5738003.41901043" end_time="19:13:00" />
      <leg mode="car" />
      <activity type="home" x="770417.66713754" y="5739607.93400892" end_time="20:47:00" />
      <leg mode="car" />
      <activity type="work" x="770419.298108957" y="5738055.52018284" end_time="23:59:00" />
      <leg mode="car" />
      <activity type="home" x="770417.66713754" y="5739607.93400892" />
    </plan>
  </person>

  

 <person id= "17" >
    <attributes>
      <attribute name="BDIAgentType" class="java.lang.String" >io.github.agentsoz.ees.agents.bushfire.Resident</attribute>
      <attribute name="HasDependentsAtLocation" class="java.lang.String" ></attribute>
      <attribute name="InitialResponseThreshold" class="java.lang.Double" >0.0</attribute>
      <attribute name="FinalResponseThreshold"   class="java.lang.Double" >0.0</attribute>
      <attribute name="WillGoHomeAfterVisitingDependents" class="java.lang.Boolean" >false</attribute>
      <attribute name="WillGoHomeBeforeLeaving" class="java.lang.Boolean" >true</attribute>
      <attribute name="EvacLocationPreference" class="java.lang.String">,743345.54165134,5752749.80696866</attribute>
      <attribute name="InvacLocationPreference" class="java.lang.String">,774717.669349475,5767689.17261328</attribute>
    </attributes>
    <plan selected="yes">
      <activity type="home" x="793134.674591797" y="5754909.73145829" end_time="00:01:00" />
      <leg mode="car" />
      <activity type="work" x="779114.215872925" y="5744467.30459213" end_time="05:14:00" />
      <leg mode="car" />
      <activity type="home" x="793134.674591797" y="5754909.73145829" end_time="09:58:00" />
      <leg mode="car" />
      <activity type="work" x="789711.608237217" y="5752825.53879836" end_time="13:56:00" />
      <leg mode="car" />
      <activity type="shops" x="790478.066050413" y="5752065.07113524" end_time="15:50:00" />
      <leg mode="car" />
      <activity type="other" x="771396.301080196" y="5738862.70157473" end_time="16:09:00" />
      <leg mode="car" />
      <activity type="home" x="793134.674591797" y="5754909.73145829" />
    </plan>
  </person>

  

 <person id= "18" >
    <attributes>
      <attribute name="BDIAgentType" class="java.lang.String" >io.github.agentsoz.ees.agents.bushfire.Resident</attribute>
      <attribute name="HasDependentsAtLocation" class="java.lang.String" >777528.547101017,5744385.13408908</attribute>
      <attribute name="InitialResponseThreshold" class="java.lang.Double" >0.0</attribute>
      <attribute name="FinalResponseThreshold"   class="java.lang.Double" >0.0</attribute>
      <attribute name="WillGoHomeAfterVisitingDependents" class="java.lang.Boolean" >false</attribute>
      <attribute name="WillGoHomeBeforeLeaving" class="java.lang.Boolean" >false</attribute>
      <attribute name="EvacLocationPreference" class="java.lang.String">,791477.824726652,5753417.74149688</attribute>
      <attribute name="InvacLocationPreference" class="java.lang.String">Anglesea 23,777281.963585362,5743796.35647515</attribute>
    </attributes>
    <plan selected="yes">
      <activity type="home" x="777530.028353511" y="5744366.1133788" end_time="06:17:00" />
      <leg mode="car" />
      <activity type="other" x="778707.911695857" y="5745384.49367177" end_time="09:35:00" />
      <leg mode="car" />
      <activity type="work" x="778980.068339046" y="5744576.673304" end_time="13:23:00" />
      <leg mode="car" />
      <activity type="home" x="777530.028353511" y="5744366.1133788" end_time="15:44:00" />
      <leg mode="car" />
      <activity type="shops" x="778607.621306294" y="5744464.65028348" end_time="17:17:00" />
      <leg mode="car" />
      <activity type="other" x="778707.911695857" y="5745384.49367177" end_time="19:55:00" />